/*--------------------------------*- C++ -*----------------------------------*\
| =========                 |                                                 |
| \\      /  F ield         | OpenFOAM: The Open Source CFD Toolbox           |
|  \\    /   O peration     | Version:  v2012                                 |
|   \\  /    A nd           | Website:  www.openfoam.com                      |
|    \\/     M anipulation  |                                                 |
\*---------------------------------------------------------------------------*/
FoamFile
{
    version     2.0;
    format      ascii;
    class       volScalarField;
    location    "0";
    object      epsilon;
}
// * * * * * * * * * * * * * * * * * * * * * * * * * * * * * * * * * * * * * //

dimensions      [0 2 -3 0 0 0 0];

internalField   uniform 200;

boundaryField
{
    inlet
    {
         type            turbulentMixingLengthDissipationRateInlet;
        mixingLength    0.005;
        value           uniform 200;
    }

    outlet
    {
        type            inletOutlet;
        inletValue      uniform 200;
        value           uniform 200;
    }


    tank_cylinder_wall
    {
        type            epsilonWallFunction;
        value           uniform 0;
    }

    tank_top_wall
    {
        type            epsilonWallFunction;
        value           uniform 0;
    }

    tank_bottom_wall
    {
        type            epsilonWallFunction;
        value           uniform 0;
    }

    inlet_wall
    {
        type            epsilonWallFunction;
        value           uniform 0;
    }

    outlet_wall
    {
        type            epsilonWallFunction;
        value           uniform 0;
    }

    defaultFaces
    {
        type            empty;
    }
}


// ************************************************************************* //
